Version 4.1
SHEET 1 880 680
WIRE 592 -32 320 -32
WIRE 784 -32 592 -32
WIRE 592 -16 592 -32
WIRE 784 0 784 -32
WIRE 592 80 592 64
WIRE 320 96 320 -32
WIRE 320 96 256 96
WIRE 48 112 -16 112
WIRE 176 112 48 112
WIRE 784 112 784 80
WIRE -16 128 -16 112
WIRE 352 128 256 128
WIRE 368 128 352 128
WIRE 448 128 432 128
WIRE 528 128 448 128
WIRE 176 144 96 144
WIRE 320 160 256 160
WIRE 448 160 448 128
WIRE 784 160 704 160
WIRE 784 192 784 160
WIRE -16 272 -16 208
WIRE 96 272 96 144
WIRE 448 272 448 240
WIRE 592 272 592 176
WIRE 320 304 320 160
WIRE 704 304 704 160
WIRE 704 304 320 304
WIRE 784 304 784 272
FLAG 96 272 0
FLAG -16 272 0
FLAG 592 272 0
FLAG 448 272 0
FLAG 784 112 0
FLAG 48 112 in
IOPIN 48 112 In
FLAG 352 128 out
IOPIN 352 128 Out
FLAG 784 304 0
SYMBOL LM741 208 128 R0
SYMATTR InstName U1
SYMBOL voltage -16 112 R0
WINDOW 0 -67 14 Left 2
WINDOW 3 -212 91 Left 2
WINDOW 123 -209 119 Left 2
WINDOW 39 0 0 Left 0
SYMATTR InstName Ei
SYMATTR Value SINE(0 1.5 100)
SYMATTR Value2 AC 1.5
SYMBOL cap 432 112 R90
WINDOW 0 0 32 VBottom 2
WINDOW 3 32 32 VTop 2
SYMATTR InstName C1
SYMATTR Value 1µ
SYMBOL voltage 784 -16 R0
SYMATTR InstName V+
SYMATTR Value 15
SYMBOL npn 528 80 R0
SYMATTR InstName Q1
SYMATTR Value BC238
SYMBOL res 576 -32 R0
SYMATTR InstName R1
SYMATTR Value 1k
SYMBOL res 432 144 R0
SYMATTR InstName R2
SYMATTR Value 100
SYMBOL voltage 784 288 R180
WINDOW 0 24 96 Left 2
WINDOW 3 24 16 Left 2
SYMATTR InstName V-
SYMATTR Value 15
TEXT -224 -184 Left 2 !.MODEL BC238 NPN\n+IS =1.8E-14 ISE=5.0E-14 NF =.9955 NE =1.46 BF =400\n+BR =35.5 IKF=.14 IKR=.03 ISC=1.72E-13 NC =1.27 NR =1.005 RB =.56 RE =.6\n+RC =.25 VAF=80 VAR=12.5 CJE=13E-12 TF =.64E-9 CJC=4E-12 TR =50.72E-9\n+VJC=.54 MJC=.33)
TEXT 96 88 Left 2 ;Vin(+)
TEXT 104 128 Left 2 ;Vin(-)
TEXT 264 80 Left 2 ;V+
TEXT 264 144 Left 2 ;V-
TEXT 264 112 Left 2 ;Out
TEXT -232 328 Left 2 !.tran 0.01
