Version 4.1
SHEET 1 880 680
WIRE 240 -16 64 -16
WIRE 416 -16 320 -16
WIRE 576 80 320 80
WIRE 64 96 64 -16
WIRE 240 96 64 96
WIRE 416 112 416 -16
WIRE 416 112 320 112
WIRE 464 112 416 112
WIRE 240 128 160 128
WIRE 480 144 320 144
WIRE 64 192 64 96
WIRE 480 208 480 144
WIRE 576 208 576 80
WIRE 160 240 160 128
WIRE 240 240 160 240
WIRE 416 240 416 112
WIRE 416 240 320 240
WIRE 160 256 160 240
WIRE 64 352 64 256
WIRE 160 352 160 336
WIRE 480 352 480 288
WIRE 576 352 576 288
FLAG 160 352 0
FLAG 64 352 0
FLAG 480 352 0
FLAG 576 352 0
FLAG 464 112 out
IOPIN 464 112 Out
SYMBOL res 144 240 R0
SYMATTR InstName R1
SYMATTR Value 1k
SYMBOL res 336 224 R90
WINDOW 0 0 56 VBottom 2
WINDOW 3 32 56 VTop 2
SYMATTR InstName R2
SYMATTR Value 10k
SYMBOL res 336 -32 R90
WINDOW 0 0 56 VBottom 2
WINDOW 3 32 56 VTop 2
SYMATTR InstName R3
SYMATTR Value 4.7k
SYMBOL cap 48 192 R0
SYMATTR InstName C1
SYMATTR Value 47n
SYMBOL voltage 576 192 R0
SYMATTR InstName V+
SYMATTR Value 15
SYMBOL voltage 480 304 R180
WINDOW 0 24 96 Left 2
WINDOW 3 24 16 Left 2
SYMATTR InstName V-
SYMATTR Value 15
TEXT 424 96 Left 2 ;Vo
TEXT 168 80 Left 2 ;Vin(-)
TEXT 168 112 Left 2 ;Vin(+)
TEXT 328 64 Left 2 ;V+
TEXT 328 128 Left 2 ;V-
TEXT 328 96 Left 2 ;Out
