Version 4.1
SHEET 1 880 680
WIRE 416 -96 176 -96
WIRE 176 -64 176 -96
WIRE 176 -64 112 -64
WIRE 416 -64 416 -96
WIRE 32 -48 -208 -48
WIRE 288 -32 112 -32
WIRE 352 -32 288 -32
WIRE 32 -16 -16 -16
WIRE 176 0 112 0
WIRE 176 32 176 0
WIRE 416 32 416 16
WIRE 416 32 176 32
WIRE -208 80 -208 -48
WIRE -16 112 -16 -16
WIRE 112 112 -16 112
WIRE 288 112 288 -32
WIRE 288 112 192 112
WIRE -16 160 -16 112
WIRE -208 272 -208 160
WIRE -16 272 -16 240
FLAG -208 272 0
FLAG -16 272 0
SYMBOL res -32 144 R0
SYMATTR InstName R2
SYMATTR Value 1k
SYMBOL res 208 96 R90
WINDOW 0 0 56 VBottom 2
WINDOW 3 32 56 VTop 2
SYMATTR InstName R1
SYMATTR Value 10k
SYMBOL voltage -208 64 R0
WINDOW 0 -62 11 Left 2
WINDOW 3 -207 112 Left 2
WINDOW 123 -207 140 Left 2
WINDOW 39 0 0 Left 0
SYMATTR InstName Ei
SYMATTR Value SINE(0 1.5 100)
SYMATTR Value2 AC 1.5
SYMBOL LM741\\LM741 64 -32 R0
SYMATTR InstName U1
SYMBOL voltage 416 -80 R0
SYMATTR InstName V+
SYMATTR Value 15
TEXT -48 -72 Left 2 ;Vin(-)
TEXT -48 -32 Left 2 ;Vin(+)
TEXT 120 -16 Left 2 ;V-
TEXT 120 -48 Left 2 ;Out
TEXT 120 -80 Left 2 ;V+
TEXT 320 -48 Left 2 ;Vo
TEXT -416 -104 Left 2 !.tran 0.5
