Version 4.1
SHEET 1 880 680
WIRE 480 -96 176 -96
WIRE 176 -64 176 -96
WIRE 176 -64 112 -64
WIRE -112 -48 -208 -48
WIRE 32 -48 -112 -48
WIRE 288 -32 112 -32
WIRE 352 -32 288 -32
WIRE 32 -16 -16 -16
WIRE 176 0 112 0
WIRE 176 32 176 0
WIRE 368 32 176 32
WIRE -208 80 -208 -48
WIRE 368 80 368 32
WIRE 480 80 480 -96
WIRE -16 112 -16 -16
WIRE 112 112 -16 112
WIRE 288 112 288 -32
WIRE 288 112 192 112
WIRE -16 160 -16 112
WIRE 368 256 368 160
WIRE 480 256 480 160
WIRE -208 272 -208 160
WIRE -16 272 -16 240
FLAG -208 272 0
FLAG -16 272 0
FLAG 288 -32 out
IOPIN 288 -32 Out
FLAG -16 112 common_R
FLAG 368 256 0
FLAG 480 256 0
FLAG -112 -48 in
IOPIN -112 -48 In
SYMBOL res -32 144 R0
SYMATTR InstName R2
SYMATTR Value 1k
SYMBOL res 208 96 R90
WINDOW 0 0 56 VBottom 2
WINDOW 3 32 56 VTop 2
SYMATTR InstName R1
SYMATTR Value 10k
SYMBOL voltage -208 64 R0
WINDOW 0 -62 11 Left 2
WINDOW 3 -207 112 Left 2
WINDOW 123 -207 140 Left 2
WINDOW 39 0 0 Left 0
SYMATTR InstName Ei
SYMATTR Value SINE(0 1.5 100)
SYMATTR Value2 AC 3
SYMBOL LM741\\LM741 64 -32 R0
SYMATTR InstName U1
SYMBOL voltage 480 64 R0
SYMATTR InstName V+
SYMATTR Value 15
SYMBOL voltage 368 176 R180
WINDOW 0 24 96 Left 2
WINDOW 3 24 16 Left 2
SYMATTR InstName V1
SYMATTR Value 15
TEXT -48 -72 Left 2 ;Vin(-)
TEXT -48 -32 Left 2 ;Vin(+)
TEXT 120 -16 Left 2 ;V-
TEXT 120 -48 Left 2 ;Out
TEXT 120 -80 Left 2 ;V+
TEXT 320 -48 Left 2 ;Vo
TEXT -408 -104 Left 2 !.tran 0.01
